https://api.github.com/repos/ConnorBrereton/Airbnb
https://api.github.com/repos/HackingGate/iOS13-WiFi-Info
https://api.github.com/repos/strangerlabs/webauthn
https://api.github.com/repos/unneon/icie
https://api.github.com/repos/1rosehip/jplist-es6
https://api.github.com/repos/DFKI-NLP/DISTRE
https://api.github.com/repos/marcotcr/sears
https://api.github.com/repos/noheltcj/RxCommon
https://api.github.com/repos/bookyo/express-ffmpeg
https://api.github.com/repos/EvanBacon/snake
https://api.github.com/repos/TrungNguyen1909/ExtremeVulnerableDriver_XNU
https://api.github.com/repos/nixpulvis/lalrpop-lambda
https://api.github.com/repos/ElpsyCN/electric-fan
https://api.github.com/repos/StevenBanama/C3AE
https://api.github.com/repos/svishnu88/TGS-SaltNet
https://api.github.com/repos/ayuLiao/AutoPublish
https://api.github.com/repos/DualSPHysics/DesignSPHysics
https://api.github.com/repos/octoshrimpy/bulma-o-steps
https://api.github.com/repos/KevinGutowski/betterTypePanel
https://api.github.com/repos/pyecharts/pyecharts-assets
https://api.github.com/repos/Innovattic/range-seek-bar
https://api.github.com/repos/rgerum/cameratransform
https://api.github.com/repos/spacehuhn/WiFiSatellite
https://api.github.com/repos/snipcart/wordpress-react
https://api.github.com/repos/adhaamehab/textblob-ar
https://api.github.com/repos/KurtE/TeensyDocuments
https://api.github.com/repos/qlemaire22/speech-music-detection
https://api.github.com/repos/VictorCazanave/vue-svg-map
https://api.github.com/repos/UchuServer/Uchu
https://api.github.com/repos/ukhan/add-to-ms-todo
https://api.github.com/repos/chinanf-boy/awesome-rust-zh
https://api.github.com/repos/octoshrimpy/bulma-o-steps
https://api.github.com/repos/v3ga/computer_history
https://api.github.com/repos/elementary/tasks
https://api.github.com/repos/huanglqweiwei/CapturePacket
https://api.github.com/repos/AlexandrovLab/SigProfilerMatrixGenerator
https://api.github.com/repos/jim-schwoebel/download_audioset
https://api.github.com/repos/typelevel/vault
https://api.github.com/repos/shaohua0116/MultiDigitMNIST
https://api.github.com/repos/lettersoup/Sofia-Sans
https://api.github.com/repos/verivital/nnv
https://api.github.com/repos/Digressive/Remove-MS-Store-Apps
https://api.github.com/repos/leerob/facebook-data-analyzer
https://api.github.com/repos/rxreact/signal
https://api.github.com/repos/jusbrasil/tech-calendar
https://api.github.com/repos/dreamRs/shufflecards
https://api.github.com/repos/Slime3/cartool
https://api.github.com/repos/onilton/ogl
https://api.github.com/repos/qunarcorp/ic
https://api.github.com/repos/paulocns/KDB
https://api.github.com/repos/tucan9389/TextRecognition-MLKit
https://api.github.com/repos/Lysxia/first-class-families
https://api.github.com/repos/sentinel-hub/eo-flow
https://api.github.com/repos/abronan/todo-grpc
https://api.github.com/repos/bailinlin/web-sdk
https://api.github.com/repos/ashutosh97/Competitive-Programming-questions
https://api.github.com/repos/Stephenfang51/CenterNet_TensorRT_CPP
https://api.github.com/repos/kwattsorg/adbshellkit
https://api.github.com/repos/0v3rride/Enum4LinuxPy
https://api.github.com/repos/Yalantis/GLata
https://api.github.com/repos/FichteFoll/discordrp-mpris
https://api.github.com/repos/yt8492/SeihekiAnalyzer
https://api.github.com/repos/icret/easyImages
https://api.github.com/repos/hikaya-io/activity
https://api.github.com/repos/junaidbhura/composer-wp-pro-plugins
https://api.github.com/repos/darkwere/ServerRecast
https://api.github.com/repos/microsoft/MCW-Internet-of-Things
https://api.github.com/repos/wangrunji0408/UndergraduateProjects
https://api.github.com/repos/ahungry/fast-scroll
https://api.github.com/repos/jxx123/fireTS
https://api.github.com/repos/Systemcluster/The-Witcher-3-Mod-manager
https://api.github.com/repos/ossc-db/pg_plan_advsr
https://api.github.com/repos/MicrosoftDocs/.github
https://api.github.com/repos/finalfusion/finalfrontier
https://api.github.com/repos/fredrike/esphome-nodes
https://api.github.com/repos/openwisp/openwisp-wifi-login-pages
https://api.github.com/repos/ultrasonicsoft/ng-connection-service
https://api.github.com/repos/osodevops/aws-enterprise-naming-tagging-standard
https://api.github.com/repos/facebookresearch/MultipleAttributeTextRewriting
https://api.github.com/repos/geilige/wxappUnpacker
https://api.github.com/repos/ganlvtech/lua-simple-encrypt
https://api.github.com/repos/future-architect/eslint-plugin-vue-scoped-css
https://api.github.com/repos/odknt/bspwmbar
https://api.github.com/repos/MiguelARD/DoorDetect-Dataset
https://api.github.com/repos/localizely/flutter-intl-vscode
https://api.github.com/repos/alphatwirl/atpbar
https://api.github.com/repos/HongqingCao/vue-win10-admin
https://api.github.com/repos/Ahren-Li/android-cmake-project
https://api.github.com/repos/jtheiner/LegoBrickClassification
https://api.github.com/repos/efureev/laravel-trees
https://api.github.com/repos/aaronparker/LatestUpdate
https://api.github.com/repos/soo89/CSD-SSD
https://api.github.com/repos/google/web-serial-polyfill
https://api.github.com/repos/redshoga/deepnude4video
https://api.github.com/repos/PurpleHorrorRus/Meridius
https://api.github.com/repos/Jasonnor/tensorboard-empty-scalar-hider
https://api.github.com/repos/CoppeliaRobotics/CoppeliaSimLib
https://api.github.com/repos/practicalddd/implementations
https://api.github.com/repos/ipinfo/java
https://api.github.com/repos/jasondonnette/sketch-copy-as-react-component
