https://api.github.com/repos/dash-project/dash-apps
https://api.github.com/repos/gbcdef/iRunMap
https://api.github.com/repos/Puasonych/Specular-Highlight
https://api.github.com/repos/arkholt/markdown-lds-scriptures
https://api.github.com/repos/codmpm/esp-mqtt-btn-switch
https://api.github.com/repos/QuentinAndre/DistributionBuilder
https://api.github.com/repos/ButternCream/Legacy-Rocket-Launcher-GUI
https://api.github.com/repos/JingMa87/Tech-Interview
https://api.github.com/repos/mechanoChem/mechanoChemIGA
https://api.github.com/repos/sysprog21/compute-pi
https://api.github.com/repos/xcc3641/CharAvatarView
https://api.github.com/repos/sysprog21/compute-pi
https://api.github.com/repos/mechanoChem/mechanoChemIGA
https://api.github.com/repos/fpco/simple-file-mirror
https://api.github.com/repos/emeryberger/COMPSCI590S
https://api.github.com/repos/keramatAlijani/Host-Header-Attack-Test
https://api.github.com/repos/flar2/kenzo
https://api.github.com/repos/fwilhelmi/Multi-Agent-Reinforcement-Learning-Methods-to-Minimize-OBSS-Interferences
https://api.github.com/repos/TCDG/Scammer-ToolBox
https://api.github.com/repos/aloerina01/aloerina01.github.io
https://api.github.com/repos/chrismoos/zero-downtime-tutorial
https://api.github.com/repos/isfaaghyth/Note-Android
https://api.github.com/repos/dkabyshev/AWS_APILess_SwiftApp
https://api.github.com/repos/leejoneshane/docker-clonezilla
https://api.github.com/repos/mrdudz/demons
https://api.github.com/repos/osaton/gulp-sass-variables
https://api.github.com/repos/ovolynets/JigsawPuzzleGame
https://api.github.com/repos/jlgaddis/xkeyscore
https://api.github.com/repos/dojo/cli-create-app
https://api.github.com/repos/DS3Lab/lda_study
https://api.github.com/repos/rbertin/basic-rootkit
https://api.github.com/repos/sandialabs/SNL-Delft3D-CEC
https://api.github.com/repos/LuciusChen/dotfiles
https://api.github.com/repos/esrrhs/wireshark_protobuf_plugin
https://api.github.com/repos/mbostock/stream-source
https://api.github.com/repos/kpmy/mipfs
https://api.github.com/repos/johnscillieri/netwatch
https://api.github.com/repos/mdibaiee/picedit
https://api.github.com/repos/AndroidHensen/QunYingZhuang
https://api.github.com/repos/hypeapps/wykopolka-android
https://api.github.com/repos/Commit451/ViewHolderArrayAdapter
https://api.github.com/repos/gzigzigzeo/mhedruli
https://api.github.com/repos/davecaos/kylie
https://api.github.com/repos/thegeorgeous/railscasts-reloaded-theme
https://api.github.com/repos/uwnlp/hitl_parsing
https://api.github.com/repos/DirkHeinke/esp_toggl
https://api.github.com/repos/hostent/Ecore
https://api.github.com/repos/devtronic/legendary-mind
https://api.github.com/repos/stephenroller/emnlp2016
https://api.github.com/repos/fotlogo/amb_ps_bmvc2016
https://api.github.com/repos/LCD344/kirby-mailer-wrapper
https://api.github.com/repos/olafkarsten/commerce_product_bundle
https://api.github.com/repos/VictoriaQ/sonatademo
https://api.github.com/repos/gengshan-y/headTracking
https://api.github.com/repos/dealforest/swift_lldb_plugin
https://api.github.com/repos/Vinelab/docker-nginx-php
https://api.github.com/repos/nodekit-io/nodekit-android
https://api.github.com/repos/sprowo/rop
https://api.github.com/repos/DirkHeinke/esp_toggl
https://api.github.com/repos/thegeorgeous/railscasts-reloaded-theme
https://api.github.com/repos/uwnlp/hitl_parsing
https://api.github.com/repos/dealforest/swift_lldb_plugin
https://api.github.com/repos/gengshan-y/headTracking
https://api.github.com/repos/nodekit-io/nodekit-android
https://api.github.com/repos/Vinelab/docker-nginx-php
https://api.github.com/repos/VictoriaQ/sonatademo
https://api.github.com/repos/SandraK82/deploy-ns-local-raspi
https://api.github.com/repos/pbohun/jit-example
https://api.github.com/repos/bkthomps/TrumpWillTriumph
https://api.github.com/repos/hustpython/TrainTicket-Inquery
https://api.github.com/repos/andresmendes/android-sensors-2-matlab
https://api.github.com/repos/seebigs/node-as-browser
https://api.github.com/repos/VR51/Batch-PDF-Image-Extractor
https://api.github.com/repos/Froiden/angular2-select
https://api.github.com/repos/tomjkidd/web-whiteboard
https://api.github.com/repos/afgane/slurmscale
https://api.github.com/repos/fgebhart/smart_alarm
https://api.github.com/repos/PureStorage-OpenConnect/powershell-scripts
https://api.github.com/repos/c-oberle/clone-detection-tools
https://api.github.com/repos/timmson/loan-schedule.js
https://api.github.com/repos/jistok/gpdb-kafka-go
https://api.github.com/repos/salesiopark/ESPyHarp
https://api.github.com/repos/jistok/gpdb-kafka-go
https://api.github.com/repos/paradime/Open-Source-Cooking
https://api.github.com/repos/timmson/loan-schedule.js
https://api.github.com/repos/salesiopark/ESPyHarp
https://api.github.com/repos/franc205/ArduinoDucky
https://api.github.com/repos/openbudgets/participatory-budgeting
https://api.github.com/repos/silverstripe/recipe-plugin
https://api.github.com/repos/zeucxb/Go-REST
https://api.github.com/repos/GM-Connor/KanjiSheets
https://api.github.com/repos/disaderp/automatic-chainsaw
https://api.github.com/repos/kciter/dead-toast
https://api.github.com/repos/volodya-renderberg/b3d-facial-rig
https://api.github.com/repos/kirby-deprecated-plugins/kirby-boiler-plugin
https://api.github.com/repos/Alotor/din
https://api.github.com/repos/danielgamage/Glyphs-Scripts
https://api.github.com/repos/DKFZ-ODCF/DKFZBiasFilter
https://api.github.com/repos/rgra/talk_functional-java-8
https://api.github.com/repos/flajann2/imap-filter
