https://api.github.com/repos/BearLaboratory/Hid2Ble
https://api.github.com/repos/leinstay/discobot
https://api.github.com/repos/dtinth/nes-apu-worklet
https://api.github.com/repos/rjaros/kvision-realworld-example-app-fullstack
https://api.github.com/repos/abhiprojectz/alertia
https://api.github.com/repos/Unleash/unleash-client-rust
https://api.github.com/repos/n27051538/solaris_exporter
https://api.github.com/repos/wojozer/easyexcel-demo
https://api.github.com/repos/Carlisle345748/Delft3D-Toolbox
https://api.github.com/repos/norse/notebooks
https://api.github.com/repos/walison17/django-rest-firebase-auth
https://api.github.com/repos/getumbrel/umbrel-manager
https://api.github.com/repos/tgpcai/XDU_Simple_C_Language_Compiler
https://api.github.com/repos/limu520/dxxQQbot
https://api.github.com/repos/v7labs/upolygon
https://api.github.com/repos/brutesque/docker-swarm-over-vpn-mesh
https://api.github.com/repos/rodrigoKulb/jsgo
https://api.github.com/repos/Octanium91/rdpwupDownloads
https://api.github.com/repos/bvisness/regular-express
https://api.github.com/repos/aaronzguan/Franka-Robot-Path-Planning
https://api.github.com/repos/raizen-analytics/data-engineering-test
https://api.github.com/repos/alexdriedger/SlayTheSpireFightPredictor
https://api.github.com/repos/navn-r/notes
https://api.github.com/repos/ihippik/idp-example
https://api.github.com/repos/Leapcode-Open/landingpage
https://api.github.com/repos/mturiansky/wavecar2unk
https://api.github.com/repos/quitesimpleorg/looqs
https://api.github.com/repos/ezgigm/sentiment_analysis_and_product_recommendation
https://api.github.com/repos/j-marjanovic/ocs-tray-mezzanine-adapter
https://api.github.com/repos/smucclaw/dmnmd
https://api.github.com/repos/HuberCui/CartoonFlutter
https://api.github.com/repos/leifermendez/ecommerce-front
https://api.github.com/repos/teja156/AnarchyGrabber3
https://api.github.com/repos/torreswoo/docker-elk-pipeline
https://api.github.com/repos/theDavidBarton/the-harry-potter-database
https://api.github.com/repos/HugoDF/microbundle-ts-pkg
https://api.github.com/repos/ropensci/qualR
https://api.github.com/repos/inhere/kite
https://api.github.com/repos/elmwycke/altlinuxlogo
https://api.github.com/repos/MadhavBahl/portfolio-old
https://api.github.com/repos/avspltd/cra-template-ch5-typescript
https://api.github.com/repos/elmwycke/altlinuxlogo
https://api.github.com/repos/MadhavBahl/portfolio-old
https://api.github.com/repos/Soulghost/AppleCellularFixup
https://api.github.com/repos/Muratthekus/Custom-Emoji-Sticker
https://api.github.com/repos/harshmons/monorepo-with-lerna-and-npm
https://api.github.com/repos/webjshtml/react-admin
https://api.github.com/repos/Zfinix/flutter_post
https://api.github.com/repos/nvzqz/byte-set-rs
https://api.github.com/repos/mositron/ifelse-mobile
https://api.github.com/repos/maykbrito/maykbrito-videos.now.sh
https://api.github.com/repos/jordanliu/openjamaica
https://api.github.com/repos/wyan/m48plus
https://api.github.com/repos/AndreiMisiukevich/RawRows
https://api.github.com/repos/markuslerner/THREE.BlurredLine
https://api.github.com/repos/davidgyoung/BackgroundAdvertiser
https://api.github.com/repos/The-Japan-DataScientist-Society/skills-checklist-viewer
https://api.github.com/repos/Beacon-Platform/trellis
https://api.github.com/repos/storyblok/getting-started
https://api.github.com/repos/MM-Lehmann/pptx2h5p
https://api.github.com/repos/sprabhuonline/HeadFirst-e-books
https://api.github.com/repos/theowoo/agbg
https://api.github.com/repos/miquelindia90/DoubleAttentionSpeakerVerification
https://api.github.com/repos/psounis/notes
https://api.github.com/repos/davidgyoung/BackgroundAdvertiser
https://api.github.com/repos/nesrinesghaier/nesrinesghaier.me
https://api.github.com/repos/square/password-rotation-lambda
https://api.github.com/repos/IlyaFaer/ForwardOnlyGame
https://api.github.com/repos/huawei-lin/HCP_Dataset_Download_Automatically_Script
https://api.github.com/repos/hako-975/aplikasi-uang-kas-dengan-php-native
https://api.github.com/repos/VSoftTechnologies/VSoft.HttpClient
https://api.github.com/repos/felipeoriani/Fynance
https://api.github.com/repos/Xovee/casflow
https://api.github.com/repos/miquelindia90/DoubleAttentionSpeakerVerification
https://api.github.com/repos/markuslerner/THREE.BlurredLine
https://api.github.com/repos/schemaorg/suggestions-questions-brainstorming
https://api.github.com/repos/underlay/underlay.org
https://api.github.com/repos/10sr/flake8-no-implicit-concat
https://api.github.com/repos/nooberfsh/prusto
https://api.github.com/repos/dynamic-graphics-inc/dgpy-libs
https://api.github.com/repos/Tup0lev/BiliBili_Global_Streaming_Projet_Katyusha
https://api.github.com/repos/ahmedhrayyan/sal-backend
https://api.github.com/repos/Lllmmr/Image-Blending-GUI
https://api.github.com/repos/Fghurayri/nextjs-hasura-starter
https://api.github.com/repos/moonclerk/gatsby-starter-payments
https://api.github.com/repos/antkorwin/github-actions
https://api.github.com/repos/theapache64/super-github
https://api.github.com/repos/sgrif/notepad_logger
https://api.github.com/repos/sgrif/notepad_logger
https://api.github.com/repos/antkorwin/github-actions
https://api.github.com/repos/rsanshierli/Bert-Classification-EMA-AD
https://api.github.com/repos/netpatch/firewall
https://api.github.com/repos/dataer-xy/ma-xy-website
https://api.github.com/repos/marcglasberg/weak_map
https://api.github.com/repos/autifyhq/parcel-reporter-bundle-manifest
https://api.github.com/repos/renatogcruz/BIM-Modeling
https://api.github.com/repos/byDagor/Five_Bar_Parallel_Robot-Janus_Jr
https://api.github.com/repos/haoxianrui/spring-framework
https://api.github.com/repos/glungu/udacity-healthcare-ai
https://api.github.com/repos/justinbellucci/cnn-visualizations-pytorch
