https://api.github.com/repos/kklash/jackbox_scanner
https://api.github.com/repos/talenteddeveloper/LDAP_Nodejs
https://api.github.com/repos/MhmdAwad/ChatMe
https://api.github.com/repos/SvOlli/VICEboard
https://api.github.com/repos/cs-qyzhang/LaTeX-Diary
https://api.github.com/repos/RichFox1990/Fox-Tower-Defense
https://api.github.com/repos/ankit-1517/Image-Processing
https://api.github.com/repos/JulesBlm/pyDelft3D-FLOW
https://api.github.com/repos/googleapis/python-access-context-manager
https://api.github.com/repos/iGotRootSRC/Dockers
https://api.github.com/repos/sunsided/fcnd-notebooks
https://api.github.com/repos/SuperThunder/STM32F411CEU6-BlackPill-MicroPython-Examples
https://api.github.com/repos/Aucuneinspi/Simple-Email-Checker
https://api.github.com/repos/alice-cai/laboratory-lockdown
https://api.github.com/repos/UnivespTeam/Linux
https://api.github.com/repos/ssomar1607/ExecutableItems
https://api.github.com/repos/ulamlabs/blockscout-docker
https://api.github.com/repos/Dcard/BubbleMock
https://api.github.com/repos/saedyousef/django-scratch
https://api.github.com/repos/ZhuMetLab/AllCCS
https://api.github.com/repos/igoralexandre80/Devopoly-Cards
https://api.github.com/repos/luxonis/XLink
https://api.github.com/repos/wpscott/DDTV-Core
https://api.github.com/repos/Malrick/Artificial-Intelligence-Resources
https://api.github.com/repos/SFDO-Community/OmbudsmanCloudCare
https://api.github.com/repos/marph91/pico-png
https://api.github.com/repos/pmp-p/wapy
https://api.github.com/repos/industry-advance/gbfs_rs
https://api.github.com/repos/ketch-com/orlop
https://api.github.com/repos/idris-rampurawala/angular-text-search-highlight
https://api.github.com/repos/boschrexroth/json-schema
https://api.github.com/repos/PrayagS/Dayummunication
https://api.github.com/repos/pinterf/GRunT
https://api.github.com/repos/xlydsg/RaspberryPiRemoteControl
https://api.github.com/repos/PrayagS/Dayummunication
https://api.github.com/repos/pinterf/GRunT
https://api.github.com/repos/poolqa/CgbiPngFix
https://api.github.com/repos/justauth/justauth-python
https://api.github.com/repos/xlydsg/RaspberryPiRemoteControl
https://api.github.com/repos/keithrozario/multi-part-upload
https://api.github.com/repos/MATPOWER/mp-opt-model
https://api.github.com/repos/lopesdiego12/Grafana
https://api.github.com/repos/Kerisa/ApiMonitor
https://api.github.com/repos/lfai/foundation
https://api.github.com/repos/ceph/ceph.io
https://api.github.com/repos/bbopt/solar
https://api.github.com/repos/alfianlosari/ExpenseTrackerSwiftUICDCKStarter
https://api.github.com/repos/seeker0720/COVID19-Data-China
https://api.github.com/repos/tianhe1986/Doudizhu-server-go
https://api.github.com/repos/ravendb/IdentityServer4.Contrib.RavenDB
https://api.github.com/repos/maykbrito/list-videos
https://api.github.com/repos/benjaminr/vimcap
https://api.github.com/repos/yiiiiiiiiiiiiiii/QAboard
https://api.github.com/repos/threecreepio/smb-glitchedworlds
https://api.github.com/repos/alb42/MCAmiga
https://api.github.com/repos/mhasancse15/MaterialDesignLogin
https://api.github.com/repos/ericmjl/what-are-probability-distributions
https://api.github.com/repos/hbollon/android-sqlite-toolbox
https://api.github.com/repos/meradeveloper/VideoApp
https://api.github.com/repos/serkanserdarusa/2016ABC
https://api.github.com/repos/SavagePencil/RetroGraphicsToolkit
https://api.github.com/repos/bzoltan1/zypper-changelog-plugin
https://api.github.com/repos/DBartleman/ultra-planner
https://api.github.com/repos/yuvraj24/EStoreline
https://api.github.com/repos/prashantbaid/scrolltrotter
https://api.github.com/repos/wesleyhf/laravel-localization-js
https://api.github.com/repos/dequelabs/axe-matchers
https://api.github.com/repos/BsCmOD/Alfawise-U30Pro-hack-and-mod
https://api.github.com/repos/smclaughlan/psstats
https://api.github.com/repos/liamrosenfeld/STFourierExplainer
https://api.github.com/repos/emrQA/bionlp_acl20
https://api.github.com/repos/tarsinzer/redux-pending-effects
https://api.github.com/repos/AlexSegen/react-expense-tracker
https://api.github.com/repos/aigri/Write-ups
https://api.github.com/repos/frakw/NTUST_OOP_1082
https://api.github.com/repos/joco-nz/bf20_mill
https://api.github.com/repos/bigio/spamassassin-dmarc
https://api.github.com/repos/e-tinkers/better-way-to-use-esp-01
https://api.github.com/repos/AMIS-Services/code-cafe-20200504
https://api.github.com/repos/SaladRaider/pkmeans
https://api.github.com/repos/DanielArturoAlejoAlvarez/iTouch
https://api.github.com/repos/alyf-de/frappe_charts_example
https://api.github.com/repos/hellozed/homeicu
https://api.github.com/repos/shinigami35/ArduinoUno-Ateccx08a
https://api.github.com/repos/troup-io/troup-client
https://api.github.com/repos/tek/thax
https://api.github.com/repos/itjieluo/EcommerceShoppingGuideRobot
https://api.github.com/repos/cicec/we-mobx
https://api.github.com/repos/Addono/container-registry-proxy
https://api.github.com/repos/AxonFramework/extension-springcloud-sample
https://api.github.com/repos/The-Portal-Bot/Portal
https://api.github.com/repos/instantish/milestone-closer
https://api.github.com/repos/open-amt-cloud-toolkit/ui-toolkit
https://api.github.com/repos/OMGFramework/omg_framework
https://api.github.com/repos/pliancy/intune-node
https://api.github.com/repos/lingjieee/rdm-release
https://api.github.com/repos/Xufn/slide_menu
https://api.github.com/repos/mhausenblas/temporal-opa
https://api.github.com/repos/justvanrossum/fbdiff
https://api.github.com/repos/zhustec/liquid-diagrams
